**
** GOLD reference: simple-shear test with CalculiX's built-in *ELASTIC
** (E=1.855, nu=0.325 <=> lambda=1.3, mu=0.7). Diff against the @-material
** shear deck with compare_dat.py.
**
*NODE, NSET=NALL
1, 0.0, 0.0, 0.0
2, 1.0, 0.0, 0.0
3, 1.0, 1.0, 0.0
4, 0.0, 1.0, 0.0
5, 0.0, 0.0, 1.0
6, 1.0, 0.0, 1.0
7, 1.0, 1.0, 1.0
8, 0.0, 1.0, 1.0
*ELEMENT, TYPE=C3D8, ELSET=EALL
1, 1, 2, 3, 4, 5, 6, 7, 8
*NSET, NSET=NY0
1, 2, 5, 6
*NSET, NSET=NY1
3, 4, 7, 8
*MATERIAL, NAME=GOLDELAS
*ELASTIC
1.855, 0.325
*SOLID SECTION, ELSET=EALL, MATERIAL=GOLDELAS
*STEP
*STATIC
*BOUNDARY
NY0, 1, 1, 0.0
NY0, 2, 3, 0.0
NY1, 1, 1, 0.01
NY1, 2, 3, 0.0
*EL PRINT, ELSET=EALL
S, E
*END STEP
